*HEADING
: NAFEMS TEST LE3, Hemispherical Shell with Point Loads  [S3R]
*ELEMENT,TYPE=S3R   ,ELSET=S3_P2
 1000,     8,     9,    11
 1001,    12,    11,     9
 1002,     9,    10,    12
 1003,    13,    12,    10
 1004,    10,    17,    13
 1005,    19,    13,    17
 1006,    17,    18,    19
 1007,    20,    19,    18
 1008,    11,    12,    14
 1009,    15,    14,    12
 1010,    12,    13,    15
 1011,    16,    15,    13
 1012,    13,    19,    16
 1013,    21,    16,    19
 1014,    19,    20,    21
 1015,    22,    21,    20
 1016,    15,    16,    24
 1017,    21,    24,    16
 1018,    14,    15,    23
 1019,    24,    23,    15
** ... 4 like lines cut
*ELEMENT,TYPE=S3R   ,ELSET=S3_P4
 3000,    64,    65,    69
 3001,    70,    69,    65
 3002,    65,    66,    70
 3003,    71,    70,    66
 3004,    66,    67,    71
 3005,    72,    71,    67
 3006,    67,    68,    72
 3007,    73,    72,    68
 3008,    68,    89,    73
 3009,    93,    73,    89
 3010,    89,    90,    93
 3011,    94,    93,    90
 3012,    90,    91,    94
 3013,    95,    94,    91
 3014,    91,    92,    95
 3015,    96,    95,    92
 3016,    69,    70,    74
 3017,    75,    74,    70
 3018,    70,    71,    75
 3019,    76,    75,    71
** ... 76 like lines cut
*NODE
    8,    10.0000,     0.0000,     0.0000,     1.0000,     0.0000,     0.0000
    9,     9.2388,     3.8268,     0.0000,     0.9239,     0.3827,     0.0000
   10,     7.0711,     7.0711,     0.0000,     0.7071,     0.7071,     0.0000
   11,     9.2388,     0.0000,     3.8268,     0.9239,     0.0000,     0.3827
   12,     8.6038,     3.5638,     3.6434,     0.8604,     0.3564,     0.3643
   13,     6.7389,     6.7389,     3.0291,     0.6739,     0.6739,     0.3029
   14,     7.0711,     0.0000,     7.0711,     0.7071,     0.0000,     0.7071
   15,     6.7860,     2.8108,     6.7860,     0.6786,     0.2811,     0.6786
   16,     5.7735,     5.7735,     5.7735,     0.5774,     0.5774,     0.5774
   17,     3.8268,     9.2388,     0.0000,     0.3827,     0.9239,     0.0000
   18,     0.0000,    10.0000,     0.0000,     0.0000,     1.0000,     0.0000
   19,     3.5638,     8.6038,     3.6434,     0.3564,     0.8604,     0.3643
   20,     0.0000,     9.2388,     3.8268,     0.0000,     0.9239,     0.3827
   21,     2.8109,     6.7860,     6.7860,     0.2811,     0.6786,     0.6786
   22,     0.0000,     7.0711,     7.0711,     0.0000,     0.7071,     0.7071
   23,     3.8268,     0.0000,     9.2388,     0.3827,     0.0000,     0.9239
   24,     3.5638,     3.6434,     8.6038,     0.3564,     0.3643,     0.8604
   25,     0.0000,     0.0000,    10.0000,     0.0000,     0.0000,     1.0000
   26,     0.0000,     3.8268,     9.2388,     0.0000,     0.3827,     0.9239
   64,    10.0000,     0.0000,     0.0000,     1.0000,     0.0000,     0.0000
** ... 60 like lines cut
*ELSET,ELSET=EALL
S3_P2,S3_P4
*MATERIAL,NAME=A1
*ELASTIC,TYPE=ISO
 6.825E+07,     0.3000,     0.0000
**GENERAL RIGID ELEMENTS
*SHELL SECTION,MATERIAL=A1,ELSET=EALL
 4.000E-02, 
*NSET,NSET=DISPSET
 8,64
*NSET,NSET=ZCONSTR
 8,64
*NSET,NSET=YSYM
 8,11,14,23,25,64,69,74,79,84,109,113,117,121
*NSET,NSET=XSYM
 18,20,22,25,26,92,96,100,104,108,121,122,123,124
*STEP
*STATIC
*BOUNDARY,OP=NEW
 ZCONSTR,3
 XSYM,XSYMM
 YSYM,YSYMM
*CLOAD,OP=NEW
    8,     1,  2.000E+00
   18,     2, -2.000E+00
   64,     1,  2.000E+00
   92,     2, -2.000E+00
*NODE PRINT,NSET=DISPSET
 U, 
 COORD,
*NODE FILE,NSET=DISPSET
 U, 
 COORD,
*OUTPUT,FIELD
*NODE OUTPUT,NSET=DISPSET
U,
COORD,
*EL PRINT,FREQUENCY=0
*END STEP
